 xtb: 6.6.1 (8d0f1dd)
          02182404233D

 39 42  0     0  0            999 V2000
    3.4005   -0.0467   -0.2988 C   0  0  0  0  0  0  0  0  0  0  0  0
    1.9476    0.3973   -0.5370 C   0  0  0  0  0  0  0  0  0  0  0  0
    1.1499    0.3217    0.7897 C   0  0  0  0  0  0  0  0  0  0  0  0
   -0.2466    0.8804    0.5460 C   0  0  0  0  0  0  0  0  0  0  0  0
   -1.0642    1.0825    1.8295 C   0  0  0  0  0  0  0  0  0  0  0  0
   -2.4459    1.3441    1.5715 N   0  0  0  0  0  0  0  0  0  0  0  0
   -2.9692    1.0135    0.4587 C   0  0  0  0  0  0  0  0  0  0  0  0
   -4.2870    1.3360    0.2241 N   0  0  0  0  0  0  0  0  0  0  0  0
   -2.3098    0.4651   -0.6161 N   0  0  0  0  0  0  0  0  0  0  0  0
   -0.9773   -0.0416   -0.4331 C   0  0  0  0  0  0  0  0  0  0  0  0
   -0.2037   -0.0367   -1.7671 C   0  0  0  0  0  0  0  0  0  0  0  0
    1.2194   -0.5612   -1.4962 C   0  0  0  0  0  0  0  0  0  0  0  0
    1.2039   -1.8614   -0.9330 O   0  0  0  0  0  0  0  0  0  0  0  0
    0.5014   -1.8853    0.2939 C   0  0  0  0  0  0  0  0  0  0  0  0
   -0.9703   -1.5087    0.0492 C   0  0  0  0  0  0  0  0  0  0  0  0
   -1.7540   -1.6905    1.1925 O   0  0  0  0  0  0  0  0  0  0  0  0
    0.5412   -3.1589    0.7963 O   0  0  0  0  0  0  0  0  0  0  0  0
    1.1172   -1.0332    1.2214 O   0  0  0  0  0  0  0  0  0  0  0  0
   -0.9035   -0.8340   -2.6922 O   0  0  0  0  0  0  0  0  0  0  0  0
   -0.5126    2.1756    2.5285 O   0  0  0  0  0  0  0  0  0  0  0  0
    1.9346    1.6836   -1.0924 O   0  0  0  0  0  0  0  0  0  0  0  0
    4.0354    1.0027    0.3985 O   0  0  0  0  0  0  0  0  0  0  0  0
    3.8908   -0.2197   -1.2673 H   0  0  0  0  0  0  0  0  0  0  0  0
    3.4056   -0.9763    0.2785 H   0  0  0  0  0  0  0  0  0  0  0  0
    1.6518    0.8721    1.5889 H   0  0  0  0  0  0  0  0  0  0  0  0
   -0.1423    1.8660    0.0813 H   0  0  0  0  0  0  0  0  0  0  0  0
   -0.9913    0.1826    2.4651 H   0  0  0  0  0  0  0  0  0  0  0  0
   -4.7998    0.7106   -0.3758 H   0  0  0  0  0  0  0  0  0  0  0  0
   -4.7773    1.6061    1.0616 H   0  0  0  0  0  0  0  0  0  0  0  0
   -2.8505    0.0038   -1.3318 H   0  0  0  0  0  0  0  0  0  0  0  0
   -0.1213    0.9959   -2.1347 H   0  0  0  0  0  0  0  0  0  0  0  0
    1.7711   -0.6628   -2.4376 H   0  0  0  0  0  0  0  0  0  0  0  0
   -1.3358   -2.1501   -0.7696 H   0  0  0  0  0  0  0  0  0  0  0  0
   -1.4316   -2.4818    1.6430 H   0  0  0  0  0  0  0  0  0  0  0  0
    1.4596   -3.3918    0.9831 H   0  0  0  0  0  0  0  0  0  0  0  0
   -0.3619   -0.9461   -3.4812 H   0  0  0  0  0  0  0  0  0  0  0  0
   -1.2598    2.6255    2.9406 H   0  0  0  0  0  0  0  0  0  0  0  0
    2.5738    2.2061   -0.5853 H   0  0  0  0  0  0  0  0  0  0  0  0
    4.9115    0.7156    0.6718 H   0  0  0  0  0  0  0  0  0  0  0  0
  1  2  1  0  0  0  0
  2  3  1  0  0  0  0
  3  4  1  0  0  0  0
  4  5  1  0  0  0  0
  5  6  1  0  0  0  0
  6  7  2  0  0  0  0
  7  8  1  0  0  0  0
  7  9  1  0  0  0  0
  4 10  1  0  0  0  0
  9 10  1  0  0  0  0
 10 11  1  0  0  0  0
  2 12  1  0  0  0  0
 11 12  1  0  0  0  0
 12 13  1  0  0  0  0
 13 14  1  0  0  0  0
 10 15  1  0  0  0  0
 14 15  1  0  0  0  0
 15 16  1  0  0  0  0
 14 17  1  0  0  0  0
  3 18  1  0  0  0  0
 14 18  1  0  0  0  0
 11 19  1  0  0  0  0
  5 20  1  0  0  0  0
  2 21  1  0  0  0  0
  1 22  1  0  0  0  0
  1 23  1  0  0  0  0
  1 24  1  0  0  0  0
  3 25  1  0  0  0  0
  4 26  1  0  0  0  0
  5 27  1  0  0  0  0
  8 28  1  0  0  0  0
  8 29  1  0  0  0  0
  9 30  1  0  0  0  0
 11 31  1  0  0  0  0
 12 32  1  0  0  0  0
 15 33  1  0  0  0  0
 16 34  1  0  0  0  0
 17 35  1  0  0  0  0
 19 36  1  0  0  0  0
 20 37  1  0  0  0  0
 21 38  1  0  0  0  0
 22 39  1  0  0  0  0
M  END
