40
CN1CC[C@]23[C@H]4C=C[C@@H]([C@@H]2OC5=C3C(=CC=C5O)C[C@@H]41)O
C 3.7757356498067276 -0.011470274367612266 0.013878181679054632
N 2.4133908854570176 0.5059431745568126 0.09365109460861323
C 1.7476738478893856 0.051985987256719754 1.3211742448918085
C 0.33288987633447176 0.6317300420419608 1.440163802708364
C -0.4672862680004845 0.49849517163759105 0.11770099400698357
C 0.2867103070809881 1.0554428206629103 -1.0743098349347107
C 0.24657103182353046 2.574140799749346 -0.9361553518080803
C -0.7397722678619615 3.211301693993329 -0.25325795202441315
C -1.9066853718259924 2.508226571099689 0.46337212083721585
C -1.8998755353029124 1.0120385376231955 0.1069976598277429
O -2.6862820572810335 0.028345880497835447 0.8400096126599965
C -2.0828516907292003 -1.1502973142109827 0.4054471094742679
C -0.8118434496358439 -0.9131320530182785 -0.09659219966096727
C -0.005814891491876406 -1.8252963589559081 -0.7434840461841258
C -0.5089658582550793 -3.1204810050300718 -0.80486416609905
C -1.7786439461661845 -3.423376435873348 -0.23932007533207106
C -2.5761610005821987 -2.428817100675957 0.36034107410137634
O -3.812458586863032 -2.7069453126695144 0.8518818195338465
C 1.2707143290388372 -1.3126491581050348 -1.3850147711237097
C 1.6147702566257516 0.23267777316698707 -1.1239148712147817
O -1.7769472451973958 2.730977243382254 1.8613824124750205
H 4.27604750588781 0.3495711450614704 -0.8913465000262879
H 3.8185687661526666 -1.1051188923064732 0.0200438207820608
H 4.368344066924095 0.35179370007129535 0.8611457518993507
H 2.322412604482603 0.3839363144687023 2.195104640083469
H 1.714055218197678 -1.0429838140456487 1.3754632642742197
H -0.18547558737839204 0.14143298926476283 2.274339326865609
H 0.4446728744520906 1.6824604681203534 1.7281477633076043
H -0.23511316938329033 0.8414543672941626 -2.0206854344021403
H 1.035125804843262 3.143275886650535 -1.421136209597188
H -0.71779355567575 4.296306639776588 -0.19161199314371058
H -2.8590494975165117 2.9507208396320994 0.15199733423678538
H -2.3086129038692293 0.9754591339420319 -0.9211514768521184
H 0.05705752160161832 -3.9080953704709422 -1.2963708872259592
H -2.139662504517257 -4.446592034544625 -0.3058895401253944
H -3.97447123236083 -3.6593811399133336 0.7713209418897946
H 1.1469941864505913 -1.4291413254849368 -2.4700662509141575
H 2.1086220270908353 -1.9532764690223223 -1.0932935778050115
H 2.194155273099843 0.5908259001152665 -1.9854516433153897
H -1.700745413344876 3.688510978629572 2.0003538116461863
C 3.7757356498067276 -0.011470274367612266 0.013878181679054632
N 2.4133908854570176 0.5059431745568126 0.09365109460861323
C 1.7476738478893856 0.051985987256719754 1.3211742448918085
C 0.33288987633447176 0.6317300420419608 1.440163802708364
C -0.4672862680004845 0.49849517163759105 0.11770099400698357
C 0.2867103070809881 1.0554428206629103 -1.0743098349347107
C 0.24657103182353046 2.574140799749346 -0.9361553518080803
C -0.7397722678619615 3.211301693993329 -0.25325795202441315
C -1.9066853718259924 2.508226571099689 0.46337212083721585
C -1.8998755353029124 1.0120385376231955 0.1069976598277429
O -2.6862820572810335 0.028345880497835447 0.8400096126599965
C -2.0828516907292003 -1.1502973142109827 0.4054471094742679
C -0.8118434496358439 -0.9131320530182785 -0.09659219966096727
C -0.005814891491876406 -1.8252963589559081 -0.7434840461841258
C -0.5089658582550793 -3.1204810050300718 -0.80486416609905
C -1.7786439461661845 -3.423376435873348 -0.23932007533207106
C -2.5761610005821987 -2.428817100675957 0.36034107410137634
O -3.812458586863032 -2.7069453126695144 0.8518818195338465
C 1.2707143290388372 -1.3126491581050348 -1.3850147711237097
C 1.6147702566257516 0.23267777316698707 -1.1239148712147817
O -1.7769472451973958 2.730977243382254 1.8613824124750205
H 4.27604750588781 0.3495711450614704 -0.8913465000262879
H 3.8185687661526666 -1.1051188923064732 0.0200438207820608
H 4.368344066924095 0.35179370007129535 0.8611457518993507
H 2.322412604482603 0.3839363144687023 2.195104640083469
H 1.714055218197678 -1.0429838140456487 1.3754632642742197
H -0.18547558737839204 0.14143298926476283 2.274339326865609
H 0.4446728744520906 1.6824604681203534 1.7281477633076043
H -0.23511316938329033 0.8414543672941626 -2.0206854344021403
H 1.035125804843262 3.143275886650535 -1.421136209597188
H -0.71779355567575 4.296306639776588 -0.19161199314371058
H -2.8590494975165117 2.9507208396320994 0.15199733423678538
H -2.3086129038692293 0.9754591339420319 -0.9211514768521184
H 0.05705752160161832 -3.9080953704709422 -1.2963708872259592
H -2.139662504517257 -4.446592034544625 -0.3058895401253944
H -3.97447123236083 -3.6593811399133336 0.7713209418897946
H 1.1469941864505913 -1.4291413254849368 -2.4700662509141575
H 2.1086220270908353 -1.9532764690223223 -1.0932935778050115
H 2.194155273099843 0.5908259001152665 -1.9854516433153897
H -1.700745413344876 3.688510978629572 2.0003538116461863
