37
	C1=C2C[C@H]3[C@@H]4C=C[C@@H]([C@H]5[C@@]4(CCN3)C2=C(C(=C1)O)O5)O
C -2.37752346443603 2.1809589449255764 0.23420432364818972
C -1.7165583690468587 1.0281808852335228 -0.1759588917769112
C -2.254887325950809 -0.052178622475570834 -1.0969342351808251
C -1.2620053519766647 -1.2727814393079837 -1.3818815494049423
C 0.21206188513283966 -0.7701506788502489 -1.4210566995933718
C 1.3974881476261982 -1.669103480864647 -1.7545576489092014
C 2.616992020528376 -1.4964939770808505 -1.1812642334621186
C 2.9513947925733977 -0.4146221108475544 -0.1379354398122067
C 1.767363433419811 0.5591726805299488 -0.011804206235233932
C 0.4658169600789259 -0.22857241086262242 -0.028329728613876493
C 0.26436477523887925 -1.3077695391588944 1.068343754128259
C -1.1017219175530153 -1.9900086703960063 0.9572986788039208
N -1.4254663419090348 -2.379584894346938 -0.4176995545431605
C -0.4098782800315066 0.9174501759329626 0.25239367220273856
C 0.30627235688963156 1.8695657186874104 0.9624463156902873
C -0.34623728357346456 3.0006500290138676 1.3806609361699005
C -1.7006596260032756 3.152362145073354 1.0230452089568576
O 0.3148603296542826 3.9538696352628713 2.0890190701823674
O 1.6476216398971804 1.5114062540542212 1.0846701192567163
O 3.2559273191630385 -1.0559666593030848 1.093694335751803
H -3.4112715694348994 2.3552764355497544 -0.054376414723798054
H -3.208771930539194 -0.42893391106637496 -0.7089926383665752
H -2.4644723320931226 0.42534434696452766 -2.063062684615973
H -1.5200219648116613 -1.6826224918419475 -2.3661950577070123
H 0.2371585896469989 0.029159719715435087 -2.178690256508898
H 1.2417107359906057 -2.4549007468693205 -2.488835475966903
H 3.426961692029053 -2.1653038943474767 -1.4608961376807108
H 3.8452744641765935 0.1390153347865304 -0.4448416083380664
H 1.8390139086147286 1.193610381783822 -0.9160891900659468
H 1.0206289532049668 -2.0959783164040044 0.9904078065291012
H 0.3710845967243505 -0.8817219826229116 2.074290478728744
H -1.887891906949396 -1.3442789021431794 1.364790571881606
H -1.1008910708622646 -2.8898324540735016 1.5831250162982278
H -2.3859830996910625 -2.7207408825277786 -0.4439133078941933
H -2.2490383925382083 4.041014005475485 1.3253663272955059
H -0.309897745489256 4.655016376496475 2.3297610536446456
H 3.951181372299774 -1.7105070040950368 0.9197972902310624
C -2.37752346443603 2.1809589449255764 0.23420432364818972
C -1.7165583690468587 1.0281808852335228 -0.1759588917769112
C -2.254887325950809 -0.052178622475570834 -1.0969342351808251
C -1.2620053519766647 -1.2727814393079837 -1.3818815494049423
C 0.21206188513283966 -0.7701506788502489 -1.4210566995933718
C 1.3974881476261982 -1.669103480864647 -1.7545576489092014
C 2.616992020528376 -1.4964939770808505 -1.1812642334621186
C 2.9513947925733977 -0.4146221108475544 -0.1379354398122067
C 1.767363433419811 0.5591726805299488 -0.011804206235233932
C 0.4658169600789259 -0.22857241086262242 -0.028329728613876493
C 0.26436477523887925 -1.3077695391588944 1.068343754128259
C -1.1017219175530153 -1.9900086703960063 0.9572986788039208
N -1.4254663419090348 -2.379584894346938 -0.4176995545431605
C -0.4098782800315066 0.9174501759329626 0.25239367220273856
C 0.30627235688963156 1.8695657186874104 0.9624463156902873
C -0.34623728357346456 3.0006500290138676 1.3806609361699005
C -1.7006596260032756 3.152362145073354 1.0230452089568576
O 0.3148603296542826 3.9538696352628713 2.0890190701823674
O 1.6476216398971804 1.5114062540542212 1.0846701192567163
O 3.2559273191630385 -1.0559666593030848 1.093694335751803
H -3.4112715694348994 2.3552764355497544 -0.054376414723798054
H -3.208771930539194 -0.42893391106637496 -0.7089926383665752
H -2.4644723320931226 0.42534434696452766 -2.063062684615973
H -1.5200219648116613 -1.6826224918419475 -2.3661950577070123
H 0.2371585896469989 0.029159719715435087 -2.178690256508898
H 1.2417107359906057 -2.4549007468693205 -2.488835475966903
H 3.426961692029053 -2.1653038943474767 -1.4608961376807108
H 3.8452744641765935 0.1390153347865304 -0.4448416083380664
H 1.8390139086147286 1.193610381783822 -0.9160891900659468
H 1.0206289532049668 -2.0959783164040044 0.9904078065291012
H 0.3710845967243505 -0.8817219826229116 2.074290478728744
H -1.887891906949396 -1.3442789021431794 1.364790571881606
H -1.1008910708622646 -2.8898324540735016 1.5831250162982278
H -2.3859830996910625 -2.7207408825277786 -0.4439133078941933
H -2.2490383925382083 4.041014005475485 1.3253663272955059
H -0.309897745489256 4.655016376496475 2.3297610536446456
H 3.951181372299774 -1.7105070040950368 0.9197972902310624
